13
Properties=species:S:1:pos:R:3 pbc="F F F"
C	0.288377073259438	0.04810998	0.9184378200544769
C	0.8036748420663651	0.00295	2.304857753763193
C	1.118686547352026	1.02536964	3.111913545389244
N	1.6026893732476348	0.7760697	4.372957690425688
S	1.515485471478268	-0.86534971	4.691432378767489
C	1.0043279564435845	-1.25553954	3.050811685551416
N	0.8418917893905956	-2.46638894	2.6589691740977166
H	0.16064158170646478	1.07880962	0.57158414030647
H	-0.6839071922427444	-0.45011982	0.8520089932560746
H	0.9819121641312544	-0.45217982	0.23534065585488173
H	1.0226065464324123	2.07057929	2.8387651021103397
H	1.3301728671055777	1.44541943	5.090236011910711
H	0.543387900313491	-2.48914909	1.6819223956286828
