13
Properties=species:S:1:pos:R:3 pbc="F F F"
O	0.4753299163716917	-0.02473999	0.8684495650414115
C	0.6622076310835854	-0.02788999	2.261774806580295
C	1.4778842954249753	-1.20930958	2.6598917032274088
C	2.588477819992427	-0.89329964	3.3374513918736133
C	2.774141462849774	0.57803977	3.520601957728589
C	1.5717068291376677	1.09113955	2.7630269438223234
O	1.3544390931126062	2.28176904	2.5464565048317502
H	0.2078065624944631	0.88446963	0.6384625731938395
H	-0.29618596304232103	-0.00673	2.7875163680100856
H	1.1806582254728724	-2.22024918	2.415151407329696
H	3.2999851912489695	-1.62169933	3.7048552366207783
H	2.716657367836687	0.86430973	4.572677807188187
H	3.697060930401234	0.9252997	3.0509477024243132
