9
Properties=species:S:1:pos:R:3 pbc="F F F"
C	0.3066112581236224	-0.00068	0.9575998744226885
C	0.7775833696664275	0.00158	2.397168259895722
O	0.9172448897587353	1.3366096	2.8609809348244366
H	0.18026096792709354	-1.02240968	0.5907389286145146
H	1.024995798842613	0.51847982	0.315384705173106
H	-0.6459708650019595	0.53002983	0.8640135797163023
H	1.742041414457344	-0.5071398	2.496012105857868
H	0.05200699476522275	-0.50835979	3.0386394870084845
H	1.5711810154485861	1.77706933	2.292405485512169
