11
Properties=species:S:1:pos:R:3 pbc="F F F"
C	-0.17198069189679588	0.07479998	2.35717237418596
N	1.08019598426537	0.14351995	1.6103568372283015
C	1.29921968016883	1.37490952	2.097171109421707
C	2.132530856432131	2.41391921	2.308086319501411
S	1.2540279364928588	3.4538188	3.4228910379417306
N	-0.0703281349157745	2.39186931	3.6650201109498837
C	0.1202682709366748	1.44504941	2.774739539850339
H	-0.23934560013475425	-0.67100978	3.153672338689593
H	-1.053046193642962	-0.02354999	1.7141870033637212
H	1.7534893665075577	-0.58330977	1.842804372047956
H	3.1223772458429027	2.64584899	1.9469099012095583
