15
Properties=species:S:1:pos:R:3 pbc="F F F"
C	0.2893473526381161	-0.04382998	0.8760219992003732
C	0.7407060917031576	0.01115	2.301890731325654
C	0.9355566731005878	1.16324949	2.961155137006643
C	1.389277616263269	1.20407951	4.393711493558728
O	1.6256644294189377	-0.06557997	5.026515619472512
C	1.3963501135066752	-1.19207954	4.28645640398924
C	0.9824470129534226	-1.21815956	3.0150530570936014
H	0.19667607367301887	-1.07252955	0.511687299871328
H	1.0055497234219084	0.47116983	0.22673506051314546
H	-0.689830344546114	0.43413985	0.7649483361244309
H	0.7669849910829818	2.11645913	2.470239752393164
H	2.3210861889854466	1.77619934	4.458960219014414
H	0.6377889516097933	1.72950935	4.993068428390094
H	1.5965839585496524	-2.08274913	4.867277900470369
H	0.8280664102137847	-2.16657925	2.5114410193806265
