12
Properties=species:S:1:pos:R:3 pbc="F F F"
N	0.4498512718992015	0.00020522187501675893	0.8415463074381431
N	1.5902724591630693	0.18976296068677856	1.5432026872191822
C	1.4345273123248503	0.982621239201413	2.5573312874732834
C	2.5854870534141514	1.3104877290361987	3.467476016236545
C	2.8260507864477233	2.7597536436390735	3.500580564459312
C	3.0272803233038186	3.943357276767418	3.531486883187698
H	0.596668547885071	-0.7480662415654762	0.1581503171099351
H	0.23103204875013933	0.8251054355982662	0.27578777530813076
H	0.45528745967868867	1.4313585107342075	2.810347259090773
H	3.483037461182779	0.7787741401337351	3.1352759405944712
H	2.327838209821879	0.952207030804808	4.4695176252604485
H	3.2112266505693103	4.993865865783761	3.5577705629644827
