13
Properties=species:S:1:pos:R:3 pbc="F F F"
O	0.6380626549550285	0.06942806868013487	0.7261222491113943
C	1.5111529983510679	0.4544400927203654	1.4924416874032205
C	1.2305395488587798	1.1714478037203395	2.7582203813776256
C	2.1821632495683865	1.586660786655045	3.590980657335325
C	1.5360037825702395	2.2159023986053645	4.764261607840367
C	0.08382204548432426	2.2919173953100005	4.302919227431048
O	-0.07560399715859777	1.4229992240845224	3.1651122967510696
H	2.579761203252643	0.2869961007462097	1.2766250036409446
H	3.2469610461805827	1.4629781373026711	3.4644296830855277
H	1.6431860367338427	1.5816987619681313	5.6499722622448525
H	1.9359886012288077	3.20788200776494	4.990996203096186
H	-0.18053927696760963	3.3104411478413995	3.993605290636025
H	-0.6098858184839774	1.983639505516234	5.092001787418986
